Version 4
SHEET 1 880 680
WIRE 384 -128 192 -128
WIRE 112 16 -48 16
WIRE 192 16 192 -128
WIRE 192 16 112 16
WIRE 240 16 192 16
WIRE 368 16 336 16
WIRE 384 16 368 16
WIRE 288 96 288 80
WIRE 112 112 112 16
WIRE 368 160 368 16
WIRE -48 176 -48 16
WIRE 288 192 288 176
WIRE 288 192 240 192
WIRE 112 208 112 192
WIRE 176 208 112 208
WIRE 112 224 112 208
WIRE 272 224 240 224
WIRE -48 304 -48 256
WIRE 112 304 -48 304
WIRE 272 304 272 224
WIRE 272 304 112 304
WIRE 368 304 368 240
WIRE 368 304 272 304
WIRE 384 304 368 304
WIRE 112 320 112 304
FLAG 384 16 V_shunt
FLAG 112 16 V_in
FLAG 112 320 0
FLAG 384 -128 V_out
FLAG 528 240 0
FLAG 528 160 V_out
SYMBOL res 96 208 R0
SYMATTR InstName R1
SYMATTR Value 24k
SYMBOL res 96 96 R0
SYMATTR InstName R2
SYMATTR Value 130k
SYMBOL res 272 80 R0
SYMATTR InstName R3
SYMATTR Value 500
SYMBOL pnp 336 80 M270
SYMATTR InstName Q1
SYMATTR Value 2SB1708
SYMBOL res 512 144 R0
SYMATTR InstName R4
SYMATTR Value {R_l}
SYMBOL tl431 208 208 M180
SYMATTR InstName U2
SYMBOL res 352 144 R0
SYMATTR InstName R6
SYMATTR Value 0.1
SYMBOL current -48 256 M180
WINDOW 0 24 80 Left 2
WINDOW 3 24 52 Left 2
WINDOW 123 0 0 Left 0
WINDOW 39 0 0 Left 0
SYMATTR InstName I1
SYMATTR Value 1A
TEXT -48 368 Left 2 !.dc I1 0mA 1000mA 1mA
TEXT -48 392 Left 2 !.step dec param R_l 1 1000 2
